Version 4.1
SHEET 1 880 680
WIRE -224 112 -256 112
WIRE -112 144 -256 144
WIRE 64 144 16 144
WIRE 64 176 -256 176
WIRE 16 208 16 144
WIRE 16 208 -256 208
WIRE -112 272 -112 144
WIRE 64 272 -112 272
WIRE 64 336 32 336
WIRE 368 336 336 336
WIRE 32 368 32 336
WIRE 64 368 32 368
WIRE 368 368 368 336
WIRE 368 368 336 368
WIRE -224 400 -224 112
WIRE 32 400 32 368
WIRE 368 400 368 368
FLAG -224 400 0
FLAG 32 400 0
FLAG 368 400 0
FLAG 64 304 X
FLAG 64 208 X
FLAG 64 240 X
FLAG 64 112 X
FLAG 64 80 X
FLAG 64 48 X
FLAG 64 16 X
FLAG 336 16 X
FLAG 336 48 X
FLAG 336 80 X
FLAG 336 112 X
FLAG 336 144 X
FLAG 336 176 X
FLAG 336 208 X
FLAG 336 240 X
FLAG 336 272 X
FLAG 336 304 X
SYMBOL symbols\\ESP32-C3-Mini 112 80 R0
SYMATTR InstName X1
SYMBOL symbols\\I2C_LCD -176 192 R0
SYMATTR InstName R1
